;MADE BY EPANET-JS [2428b777]
[JUNCTIONS]
;Id	Elevation
J1	1150.6
J2	1146.7
J5	1143.2
J6	1144
J9	1148.1
J10	1147.9
J20	1183.3
J23	1159
J24	1154.3
J25	1154
J26	1151.6
J27	1154.2
J28	1157
J29	1151.8
J30	1152.2
J31	1151.4
J32	1147.6
J36	1146.6
J37	1140.7
J40	1140.7
J41	1145.2
J42	1139.7
J45	1143.4
J48	1147.7
J49	1153.5
J50	1143.8
J51	1153.8
J52	1149.8
J62	1145.8
J63	1143.8
J74	1138.3
J78	1150.9
J86	1141
J87	1155.6
J88	1155.6
J89	1153.8
J90	1148
J93	1146
J94	1143.9
J100	1142.4
J101	1139.4
J102	1153
J103	1150.9
J104	1152.2
J105	1152.6
J112	1143.4
J113	1150.3
J114	1155
J120	1141.4
J121	1140.4
J122	1141.1
J123	1140.2
J126	1157
J127	1152.3
J128	1152.3
J137	1140.1
J141	1138.3
J142	1136.6
J145	1143.5
J146	1140.4
J147	1144
J148	1150.7
J152	1143.9
J154	1142
J155	1143.5
J156	1169.2
J172	1154.3
J173	1154.3
J174	1147.6
J175	1147.6
J176	1148.1
J177	1147.9
J178	1150.9
J179	1150.9
J184	1196.8
J185	1196.8
J186	1195.4
J187	1195.4
J188	1139.8
J189	1139.8
J190	1139.6
J191	1139.6
J192	1141.5
J193	1141.5
J194	1140.2
J195	1140.6
J198	1144
J199	1144
J204	1141
J205	1141
J206	1156.4
J207	1156.4
J208	1151.6
J209	1151.6
J212	1153
J213	1153
J224	1141.6
J225	1141.6
J226	1143.9
J227	1143.9
J228	1147.6
J229	1147.6
J230	1149.9
J231	1149.9
J232	1154.4
J233	1154.3
J234	1155.6
J235	1155.6
J236	1152.2
J237	1152.2
J240	1144
J241	1144
J242	1142.9
J243	1142.9
J250	1136.4
J251	1136.4
J254	1146.6
J255	1146.6
J256	1151.1
J257	1151.1

[RESERVOIRS]
;Id	Head	Pattern

[TANKS]
;Id	Elevation	InitLevel	MinLevel	MaxLevel	Diameter	MinVol
T1	1196.5	4	0	4	28.2	0	*	YES

[PIPES]
;Id	Start	End	Length	Diameter	Roughness	MinorLoss	Status
1219	J1	J2	74.05	50	140
1221_2	J240	J6	1.37	50	140
1221_1	J5	J241	202.96	50	140
1223	J9	J10	8.27	110	140
1228_2	T1	J186	9.51	250	130
1228_1	J187	J20	184.79	250	130
1231_2	J23	J232	170.48	110	140
1231_1	J233	J24	3.76	110	140
1232_2	J25	J208	159.8	160	140
1232_1	J209	J26	2.15	160	140
1233	J27	J28	105.78	110	140
1234	J29	J30	120.66	110	140
1235_2	J31	J228	80.95	110	140
1235_1	J229	J32	0.21	110	140
1238_2	J36	J194	460.75	160	140
1238_1	J195	J37	3.19	160	140
1240	J40	J41	187.46	110	140
1241	J224	J42	115.61	110	140
1242	J30	J25	136.46	110	140
1244_2	J41	J226	86.26	110	140
1244_1	J227	J45	15.4	110	140
1246_2	J36	J176	272.74	110	140
1246_1	J177	J48	10.21	110	140
1247_2	J48	J174	8.9	160	140
1247_1	J175	J49	248.16	160	140
1248	J50	J2	359.02	90	140
1250_2	J230	J52	0.51	110	140
1250_1	J51	J231	130.62	110	140
1257	J62	J63	118.82	90	140
1274	J74	J32	1214.37	315	140
1277_2	J254	J178	379.56	160	140
1277_1	J179	J78	2.56	160	140
1282_2	J86	J204	2.55	110	140
1282_1	J205	J45	219.65	110	140
1283	J87	J23	130.21	110	140
1284_2	J23	J234	280.9	110	140
1284_1	J235	J88	2.17	110	140
1285	J31	J89	80.55	110	140
1286	J89	J23	62.46	110	140
1287	J29	J31	130.48	110	140
1288	J49	J25	127.37	160	140
1289	J90	J27	129.34	110	140
1290	J206	J28	150.2	110	140
1292_2	J93	J94	87.8	160	140
1296	J254	J50	259.94	90	140
1298	J100	J224	267.17	160	140
1299	J63	J6	26.07	160	140
1300	J10	J48	50.93	160	140
1301	J78	J36	144.92	160	140
1302_2	J101	J188	5.84	160	140
1302_1	J189	J254	536.55	160	140
1303	J26	J78	132.82	160	140
1304	J102	J26	148.81	160	140
1305	J103	J102	53.31	160	140
1306	J32	J52	91.95	315	140
1307	J52	J24	82.71	315	140
1308	J28	J87	136.84	110	140
1309	J88	J104	114.26	315	140
1310	J105	J104	49.3	315	140
1319	J112	J63	206.09	160	140
1320	J87	J29	135.45	110	140
1321_2	J172	J87	140.89	110	140
1321_1	J113	J173	183.89	110	140
1322	J49	J29	136.06	110	140
1323	J114	J105	45.54	315	140
1327	J120	J121	103.36	150	120
1328_2	J101	J184	736.77	250	140
1328_1	J185	T1	14.8	250	140
1329	J37	J122	12.09	160	140
1330_2	J123	J192	332.39	110	140
1330_1	J193	J122	6.67	110	140
1332_2	J212	J102	1.68	63	140
1332_1	J126	J213	488.35	63	140
1333	J27	J49	254.31	160	140
1334	J31	J30	240.14	110	140
1335	J24	J88	75.1	315	140
1336_2	J127	J236	5.95	110	140
1336_1	J237	J104	5.86	110	140
1337	J128	J127	0.61	110	140
1338	J127	J128	411.29	110	140
1346	J100	J137	174.15	160	140
1348	J224	J123	129.97	160	140
1349_2	J121	J190	86.36	160	140
1349_1	J191	J101	16.64	160	140
1352_2	J141	J250	79.43	63	140
1352_1	J251	J142	3.85	63	140
1354	J145	J45	2.93	50	140
1355	J146	J145	174.14	50	140
1356	J147	J145	107.49	50	140
1357_2	J148	J256	16.74	90	140
1357_1	J257	J103	5.09	90	140
1361_2	J94	J198	7.99	160	140
1361_1	J199	J103	83.59	160	140
1363_2	J152	J94	0.52	110	140
1364_2	J45	J242	169.1	160	140
1364_1	J243	J100	7.83	160	140
1365	J137	J142	70.24	110	140
1366	J154	J137	50.85	110	140
1369	J155	J37	253.51	160	140
1370	J6	J10	240.69	160	140
1371	J50	J156	467.97	110	140

[PUMPS]
;Id	Start	End	Properties

[VALVES]
;Id	Start	End	Diameter	Setting	MinorLoss
1381	J172	J173	110	TCV	0.0001	0.0001
1382	J174	J175	160	TCV	0.0001	0.0001
1383	J176	J177	110	TCV	0.0001	0.0001
1384	J178	J179	160	TCV	0.0001	0.0001
1387	J184	J185	250	TCV	0.0001	0.0001
1388	J186	J187	250	TCV	0.0001	0.0001
1389	J188	J189	160	TCV	0.0001	0.0001
1390	J190	J191	160	TCV	0.0001	0.0001
1391	J192	J193	110	TCV	0.0001	0.0001
1392	J194	J195	160	TCV	0.0001	0.0001
1394	J198	J199	160	TCV	0.0001	0.0001
1397	J204	J205	110	TCV	0.0001	0.0001
1398	J206	J207	110	TCV	0.0001	0.0001
1399	J208	J209	160	TCV	0.0001	0.0001
1401	J212	J213	63	TCV	0.0001	0.0001
1407	J224	J225	160	TCV	0.0001	0.0001
1408	J226	J227	110	TCV	0.0001	0.0001
1409	J228	J229	110	TCV	0.0001	0.0001
1410	J230	J231	110	TCV	0.0001	0.0001
1411	J232	J233	110	TCV	0.0001	0.0001
1412	J234	J235	110	TCV	0.0001	0.0001
1413	J236	J237	110	TCV	0.0001	0.0001
1415	J240	J241	50	TCV	0.0001	0.0001
1416	J242	J243	110	TCV	0.0001	0.0001
1420	J250	J251	63	TCV	0.0001	0.0001
1422	J254	J255	160	TCV	0.0001	0.0001
1423	J256	J257	90	TCV	0.0001	0.0001

[DEMANDS]
;Id	Demand	Pattern	Category

[STATUS]
;Id	Status
1381	Open
1382	Open
1383	Open
1384	Open
1387	Open
1388	Open
1389	Open
1390	Open
1391	Open
1392	Open
1394	Closed
1397	Open
1398	Closed
1399	Open
1401	Open
1407	Open
1408	Open
1409	Open
1410	Open
1411	Open
1412	Open
1413	Open
1415	Open
1416	Open
1420	Open
1422	Open
1423	Open

[CURVES]
;Id	X	Y

[PATTERNS]
;Id	Multiplier
constant	1

[TIMES]
Duration	0

[REPORT]
Status	NO
Summary	No
Page	0

[OPTIONS]
Quality	NONE
Unbalanced	CONTINUE 10
Accuracy	0.001
Units	LPS
Headloss	H-W
Demand Multiplier	1
Demand Model	DDA
Emitter Exponent	0.5
Trials	40
Pattern	constant

[BACKDROP]
Units	DEGREES

[COORDINATES]
;Node	X-coord	Y-coord
J1	31.805371515006524	-1.3321758499658611
J2	31.80569505364094	-1.3327458495564874
J5	31.813672762110503	-1.3332562650629232
J6	31.8152095911528	-1.3325786264141883
J9	31.813848860394344	-1.3308955720262057
J10	31.813908183714442	-1.3308507342450073
J20	31.81171538389949	-1.3414415531816548
J23	31.81135840488186	-1.3260730728567742
J24	31.81010598403748	-1.3251591498107012
J25	31.811495063715913	-1.329436647884986
J26	31.81049096954117	-1.3305031919868062
J27	31.813841033989764	-1.3269322568511819
J28	31.81319955390415	-1.326230431837067
J29	31.811381587126483	-1.3277839831853047
J30	31.810629658766892	-1.3285663631100206
J31	31.810491038014653	-1.3270197407327553
J32	31.809858310535027	-1.3267040604460199
J36	31.812029342732515	-1.3324621516422575
J37	31.814831772073305	-1.3355211257119652
J40	31.823387409414472	-1.331496160891453
J41	31.82199040970263	-1.3311027220894722
J42	31.817308276648582	-1.3333876687615833
J45	31.821234429435254	-1.3316320898668115
J48	31.813639023219068	-1.330480339562678
J49	31.81228110895621	-1.328603833245471
J50	31.807545185841775	-1.334637181177411
J51	31.810993091682754	-1.326498257141716
J52	31.810007541016603	-1.3258961208238056
J62	31.815711193635003	-1.3319638005069072
J63	31.815361674378476	-1.332757062076945
J74	31.81467191911223	-1.335201453634387
J78	31.81120106384986	-1.3314641289236346
J86	31.81968270878106	-1.3303582599755477
J87	31.812202460693282	-1.326885035297403
J88	31.810194933860686	-1.3244898243814296
J89	31.81099308300033	-1.326499499032439
J90	31.814626602628636	-1.3277844238929783
J93	31.80806689417018	-1.3280822524461533
J94	31.808685959925274	-1.328572377100358
J100	31.819965975307877	-1.332608064432579
J101	31.813314428368447	-1.3375224764093765
J102	31.80963717243339	-1.3294746483029205
J103	31.809281444809592	-1.3291544691337207
J104	31.810276772393898	-1.3234679647192804
J105	31.81027461423357	-1.323024590103517
J112	31.81658141881791	-1.3341528548620425
J113	31.814238566232326	-1.328770155418617
J114	31.810628877345483	-1.3228538009332595
J120	31.81442076537695	-1.336047002330286
J121	31.813793915314	-1.3367314070872987
J122	31.81475377296298	-1.3355969511068935
J123	31.817159996238203	-1.334818088183768
J126	31.81268920806128	-1.3262910405890633
J127	31.8103913693688	-1.3234807602042449
J128	31.810396867351567	-1.3234813091889133
J137	31.81877794185123	-1.3315871978125342
J141	31.817788915584387	-1.3315463122992648
J142	31.81835200602744	-1.3320537629546383
J145	31.82124223874577	-1.3316084875926353
J146	31.820064954977106	-1.3305774862130688
J147	31.821574127659503	-1.3309543926326382
J148	31.809156811070963	-1.3293173879042057
J152	31.808682525370624	-1.328575536696807
J154	31.81908450423375	-1.3312477722736216
J155	31.8165921725669	-1.3340990874587892
J156	31.80384062464837	-1.3361175849524276
J172	31.813091655032352	-1.3277858939016693
J173	31.81309834484679	-1.3277919062327384
J174	31.813588912541725	-1.3304178090313847
J175	31.81358327953588	-1.330410797329816
J176	31.81357692900805	-1.3305597419163857
J177	31.813582468679716	-1.3305526562768513
J178	31.811186099591485	-1.3314923761909019
J179	31.81119030853431	-1.3314844281098277
J184	31.810279628773607	-1.3419755487696154
J185	31.810273773153707	-1.3419818627754525
J186	31.810159929976678	-1.3419662965019523
J187	31.810159872748365	-1.3419573034807157
J188	31.813266591232832	-1.337500668250886
J189	31.81325840674517	-1.337496936180979
J190	31.813382105671202	-1.3373874676390065
J191	31.813376642336536	-1.3373945988307683
J192	31.814802577605523	-1.335645782410574
J193	31.81479621999035	-1.335639419990433
J194	31.81481023230741	-1.3354902081218831
J195	31.814815375221638	-1.3354975866331282
J198	31.808737484312793	-1.328622556062488
J199	31.808743915198118	-1.3286288444374237
J204	31.81970033834873	-1.3303729289622468
J205	31.81970725752867	-1.3303786759985075
J206	31.81334332285329	-1.3249471942067101
J207	31.8133444745431	-1.3249428484174683
J208	31.8105099008543	-1.3304820504990849
J209	31.810503904085152	-1.330488753917282
J212	31.80964683232857	-1.329462964147114
J213	31.80965256450779	-1.3294560332378134
J224	31.818074614268244	-1.3340905532896399
J225	31.818074614268244	-1.3340905532896399
J226	31.82135602991005	-1.3315487188539785
J227	31.82134820599438	-1.331553065369177
J228	31.80986558899606	-1.3267044813267914
J229	31.80986016666666	-1.3267041666666668
J230	31.810012099999998	-1.3258966333333357
J231	31.810018867588717	-1.3258974203514826
J232	31.810146225070646	-1.3251738419965953
J233	31.810137777251505	-1.325170751658919
J234	31.810221691024406	-1.3244991933090053
J235	31.810213101173478	-1.324496787950552
J236	31.8103381695161	-1.3234748034983963
J237	31.810329229531202	-1.3234738050272292
J240	31.815200953166396	-1.3325873933901244
J241	31.81519464573947	-1.3325938055341964
J242	31.82002896429342	-1.332559657353293
J243	31.820021835503088	-1.3325651423823859
J250	31.818319659101206	-1.3320245893763598
J251	31.818326337067298	-1.3320306148677423
J254	31.809741488821846	-1.3344581613420636
J255	31.809741488821846	-1.3344581613420636
J256	31.80925069530183	-1.3291997152992652
J257	31.809256320149366	-1.3291926970776464
T1	31.810160518578115	-1.3420518466899378

[VERTICES]
;link	X-coord	Y-coord
1219	31.805430668766597	-1.3323929613121097
1221_1	31.8139397	-1.3330484
1221_1	31.8141774	-1.3328495
1221_1	31.8142307	-1.3327952
1221_1	31.8143271	-1.3328043
1221_1	31.8144445	-1.3328225
1221_1	31.81457	-1.3328768
1221_1	31.8146455	-1.3329221
1221_1	31.8147306	-1.3329221
1221_1	31.8147899	-1.3328769
1221_1	31.8150317	-1.3327594
1228_1	31.8101597	-1.3419288
1228_1	31.8103077	-1.3418771
1228_1	31.8104405	-1.3418085
1228_1	31.8105379	-1.3417674
1228_1	31.8114096	-1.341529
1228_1	31.8116619	-1.3414568
1231_2	31.8113488	-1.3260643
1231_2	31.8113449	-1.3260643
1231_2	31.8113216	-1.3260371
1231_2	31.8109087	-1.3256389
1231_2	31.810674	-1.3254398
1231_2	31.8104825	-1.3253041
1231_2	31.8103219	-1.3252135
1231_2	31.8101557	-1.3251773
1232_2	31.8109776	-1.3300072
1232_2	31.8106756	-1.3302971
1233	31.813592238942523	-1.326635192201254
1234	31.811155249623532	-1.3280269610287199
1234	31.811000707342192	-1.328189698212261
1234	31.810798122897847	-1.3283885925269165
1235_2	31.8102427	-1.3267891
1235_2	31.8101808	-1.326759
1235_2	31.810078	-1.3267378
1235_2	31.8099345	-1.3267088
1238_2	31.8121729	-1.3326432
1238_2	31.8126617	-1.3329807
1238_2	31.8130039	-1.3332632
1238_2	31.8133788	-1.333627
1238_2	31.8136909	-1.333998
1238_2	31.8142924	-1.3347309
1238_2	31.8146511	-1.3352286
1238_2	31.8147541	-1.3354095
1240	31.82239417209764	-1.330827340495673
1242	31.810959791619744	-1.3289054485121332
1242	31.811099025939477	-1.3290399871872913
1244_2	31.8217944	-1.3312431
1244_2	31.8214848	-1.3314601
1244_2	31.821373	-1.3315414
1246_2	31.8121903	-1.3322437
1246_2	31.8125737	-1.3317609
1246_2	31.8134007	-1.330785
1247_1	31.8135584	-1.3303799
1247_1	31.8131812	-1.3298551
1247_1	31.8126696	-1.3291764
1247_1	31.8123698	-1.3287964
1247_1	31.8122977	-1.3286426
1248	31.807450822067448	-1.334637135034919
1248	31.807065446571027	-1.3347545329350836
1248	31.806873327070313	-1.3347996644695315
1248	31.806735721997835	-1.3347815069251152
1248	31.80654486337605	-1.3347559895411159
1248	31.806282124723957	-1.334300867802169
1248	31.806186805841385	-1.334166561972379
1248	31.805988552609673	-1.3337823664712456
1248	31.805926269468454	-1.3335673556170318
1248	31.805888525074653	-1.3333380808894397
1248	31.805824801191356	-1.3330767683715443
1250_1	31.810668	-1.3262177
1250_1	31.8105248	-1.3260729
1250_1	31.8103096	-1.3259556
1250_1	31.8100745	-1.3259039
1257	31.81586834573013	-1.3322171404559282
1257	31.8158333684317	-1.332379935937773
1257	31.815664249829254	-1.3325233703907977
1274	31.814526264131576	-1.3349842996666252
1274	31.8144255105803	-1.3348395285877253
1274	31.814238303554074	-1.3345952190507737
1274	31.81392310585165	-1.334197080110011
1274	31.813397939405892	-1.3335817560760135
1274	31.813354710975204	-1.333536509423573
1274	31.81322755808804	-1.3333917255746899
1274	31.812928043651148	-1.3330840456654358
1274	31.81270457357929	-1.3329120796318397
1274	31.812206558874696	-1.3324867166394991
1274	31.812076882397	-1.3323328864886943
1274	31.811882646379953	-1.3321066639731747
1274	31.81177656523321	-1.331943800192308
1274	31.81161686058043	-1.3317447298593525
1274	31.811481438435568	-1.331625268410505
1274	31.811298782514168	-1.331340559496241
1274	31.811109757923976	-1.3310624812000753
1274	31.810918129851224	-1.3307862106851345
1274	31.81075408034272	-1.3305491488132783
1274	31.810663801230604	-1.3304254880022437
1274	31.810543912190973	-1.3302427183316887
1274	31.81019762287202	-1.3298692878400122
1274	31.810136699725444	-1.3297890587905568
1274	31.81005190141374	-1.3296756515037143
1274	31.809838489087635	-1.329459068280745
1274	31.81024316988208	-1.3289853008434132
1274	31.81052705997668	-1.3286851408220652
1274	31.810233212324395	-1.328314148319581
1274	31.810000677265634	-1.3280716262815508
1274	31.80983167851352	-1.3279268223633156
1274	31.80968120681677	-1.3278001176783267
1274	31.809699790215628	-1.3277006304332652
1274	31.80972735194698	-1.327619237776625
1274	31.809748433036937	-1.327583067549507
1274	31.80977796889037	-1.3274835856166851
1274	31.80978473535971	-1.327273219410203
1274	31.809839176831016	-1.3269318632613865
1277_2	31.8098611	-1.3343109
1277_2	31.8100264	-1.3342
1277_2	31.8100608	-1.3340975
1277_2	31.8099724	-1.3338667
1277_2	31.8102937	-1.3331281
1277_2	31.8104654	-1.3328567
1282_1	31.8202062	-1.3307937
1284_2	31.811396	-1.3260281
1284_2	31.8115849	-1.3258473
1284_2	31.811611	-1.3258292
1284_2	31.8116753	-1.3257569
1284_2	31.8117473	-1.3256846
1284_2	31.8114121	-1.3253678
1284_2	31.8108465	-1.3247977
1284_2	31.8105899	-1.3245986
1284_2	31.8104663	-1.3245443
1284_2	31.8104652	-1.3245443
1284_2	31.8104104	-1.3245171
1285	31.810697768372407	-1.3268237382882684
1285	31.81081859622627	-1.3266881200790022
1285	31.81091217399179	-1.3265705788842583
1286	31.810994495453397	-1.3264982578219593
1286	31.81117426139234	-1.3262884981362362
1286	31.81128326650733	-1.3261703610614795
1287	31.810951840504252	-1.32740697046321
1288	31.812270481642106	-1.3286154347958672
1288	31.811977794783477	-1.328948153392481
1288	31.81184858401317	-1.329071707685775
1289	31.81400875716795	-1.3271690562312484
1289	31.813902101078767	-1.3270333277112907
1289	31.81386506416887	-1.3269609487671084
1290	31.81332030360625	-1.3250340731329624
1290	31.813353810750932	-1.3254411200603124
1290	31.813378179013764	-1.325576808750197
1290	31.813390972688563	-1.3258391236349734
1290	31.813365895992817	-1.3260109689370492
1290	31.813241672194884	-1.3262008565487053
1292_2	31.80865296195323	-1.328541317325315
1296	31.809422785451112	-1.3343215195458489
1296	31.809279299501473	-1.334267178827525
1296	31.80910772999482	-1.3342128243970268
1296	31.80887886951648	-1.3342284167873302
1296	31.80872943287365	-1.3342663034378865
1296	31.808537462054645	-1.3343645797883361
1296	31.80826206185407	-1.3344686078355557
1296	31.80801488773065	-1.3345827493954339
1296	31.8077718263547	-1.3346795353568863
1298	31.818432264318815	-1.3338103270727089
1299	31.81532495308314	-1.332714359374189
1300	31.813710840671643	-1.3305698804579877
1301	31.81120106384986	-1.3314641289236346
1301	31.811332969621198	-1.3316541405979565
1301	31.811501437451284	-1.3317952603814922
1301	31.8115861685762	-1.331919652104418
1301	31.811814181883445	-1.3321804587755393
1301	31.811939674892763	-1.3323342380403758
1302_1	31.8131136	-1.337431
1302_1	31.8130049	-1.3373812
1302_1	31.8126978	-1.3368178
1302_1	31.8124205	-1.3364462
1302_1	31.8121757	-1.3361782
1302_1	31.811925	-1.3359117
1302_1	31.8114876	-1.3353945
1302_1	31.8111584	-1.3349886
1302_1	31.8106915	-1.3348263
1302_1	31.8099238	-1.3345328
1303	31.81094062248217	-1.3310841072464823
1303	31.811162052956917	-1.3314098392321825
1304	31.809722031354983	-1.3295778038766835
1304	31.81011815414531	-1.3300043235501702
1305	31.80931703465477	-1.3291892703296024
1305	31.80950344425671	-1.3293370975351504
1306	31.80988313144022	-1.3266333957594327
1306	31.809920237485716	-1.326561052829549
1306	31.80994534041006	-1.3263349370990956
1306	31.81000283171413	-1.3259188896216183
1307	31.81003042366441	-1.3257741811322725
1307	31.810084004678764	-1.3253129061479112
1307	31.810093864944502	-1.3252495951077057
1307	31.810094145338915	-1.3252495952435583
1308	31.81310007921822	-1.326300284468944
1308	31.812827072754732	-1.3263544231671665
1308	31.812654038184032	-1.326426700450718
1308	31.812401999512918	-1.3266798419620522
1308	31.8122702192033	-1.3268154550249849
1309	31.81020942603287	-1.3243813198400625
1309	31.81028016801645	-1.3238567372722971
1309	31.81027668167573	-1.3235130211193726
1310	31.810277048461877	-1.3233321189460205
1319	31.81636893696844	-1.3339093167966765
1319	31.81544615590614	-1.332855306074928
1320	31.81205892060779	-1.3270324356656242
1320	31.811834408869846	-1.3272765452196629
1320	31.8117973158053	-1.3273217528583328
1320	31.811618331964876	-1.3275025685578383
1320	31.811458435945667	-1.3277014837172103
1321_2	31.8130644	-1.3277614
1321_2	31.812926	-1.3275949
1321_2	31.812554	-1.3272082
1321_2	31.8123001	-1.3269771
1321_1	31.8138091	-1.3282363
1321_1	31.8136483	-1.3280372
1321_1	31.8134768	-1.3279015
1321_1	31.8134391	-1.3278743
1321_1	31.8133847	-1.3278019
1321_1	31.8132504	-1.3277251
1321_1	31.8131355	-1.3278253
1322	31.812268260862133	-1.3285611629764815
1322	31.8120077412148	-1.3283439537078945
1323	31.810274399820464	-1.3229974483155735
1327	31.813903855998483	-1.3365795576579473
1328_2	31.8133353	-1.3376182
1328_2	31.8134555	-1.3381018
1328_2	31.8135803	-1.3386189
1328_2	31.8136639	-1.3392314
1328_2	31.813568	-1.3395745
1328_2	31.8133381	-1.3402071
1328_2	31.8132046	-1.3405529
1328_2	31.8130604	-1.3409343
1328_2	31.8129961	-1.3410877
1328_2	31.8128778	-1.3411779
1328_2	31.812744	-1.3412363
1328_2	31.8126271	-1.3412823
1328_2	31.8124519	-1.3413412
1328_2	31.8119694	-1.3413826
1328_2	31.811429	-1.3415619
1328_2	31.8110871	-1.3416498
1328_2	31.8107059	-1.3417457
1328_2	31.8104448	-1.341842
1328_2	31.8103127	-1.3419078
1330_2	31.816719	-1.3351391
1330_2	31.8166103	-1.3352295
1330_2	31.8155755	-1.3360365
1330_2	31.815439	-1.3361244
1330_2	31.8152624	-1.3361063
1332_1	31.8123487	-1.3265894
1332_1	31.81217	-1.3267611
1332_1	31.8121415	-1.3267913
1332_1	31.8117777	-1.327177
1332_1	31.8116552	-1.3273126
1332_1	31.8114695	-1.3275296
1332_1	31.8113708	-1.3276291
1332_1	31.811292	-1.3277003
1332_1	31.811238	-1.3277412
1332_1	31.8107652	-1.3282451
1332_1	31.8105561	-1.3284946
1332_1	31.8104908	-1.3285603
1332_1	31.8099893	-1.3290485
1333	31.813454288314418	-1.327340645454369
1333	31.813139582729004	-1.3276751628397432
1333	31.81311936385353	-1.3276955841829292
1333	31.81307692462435	-1.327738448389108
1333	31.81282424697372	-1.3280098697497227
1333	31.81269140108244	-1.3281502590055407
1333	31.812551954442206	-1.3282939157588012
1333	31.81240250694136	-1.328449021482629
1333	31.81228110895621	-1.328603833245471
1334	31.810211117011825	-1.3273028935049598
1334	31.8098071955428	-1.3277573656085235
1334	31.810142961765433	-1.328091594622746
1334	31.810310507769294	-1.3282599151457506
1334	31.81055612724392	-1.3284945996233708
1334	31.810611697275487	-1.328547696119798
1335	31.81014431719765	-1.324869724637215
1335	31.810184059310796	-1.3245712550195272
1338	31.810335529227174	-1.3237844031200974
1338	31.810327907113358	-1.3238658054911396
1338	31.81038995240377	-1.3239110611033917
1338	31.810419033484234	-1.3239128362597072
1338	31.81053935690875	-1.3239201785124934
1338	31.810730036355825	-1.3239474061189451
1338	31.81177021683107	-1.324083585937566
1338	31.81181460741781	-1.3240474269049112
1338	31.81184444159759	-1.3239117644853284
1338	31.811873991058416	-1.3237851470474993
1338	31.811729110191465	-1.3237127160525626
1338	31.811111586183515	-1.3236038760993902
1338	31.810903783451373	-1.3235585500233318
1338	31.810741188380337	-1.323531336037577
1338	31.810580273166504	-1.3235131679753218
1338	31.810437617567302	-1.3234859636191618
1348	31.817563556640657	-1.3345063821319045
1348	31.81722107642594	-1.3347775702602198
1349_2	31.8136398	-1.3369442
1349_2	31.8134283	-1.3373329
1349_1	31.8133086	-1.337493
1354	31.821234901280597	-1.3316169367495605
1355	31.820601604679705	-1.3310073471731207
1355	31.82114646150351	-1.331528003763334
1356	31.821754478152684	-1.3310962035404172
1356	31.821587221291686	-1.3311802718186747
1356	31.821393491787692	-1.3314104807135119
1356	31.82128010761727	-1.3315648837947083
1357_1	31.809263	-1.3291844
1361_2	31.8086914	-1.3285775
1369	31.816525337651864	-1.334194437370893
1369	31.816423640663114	-1.3342931617076297
1369	31.816188199448554	-1.3344947944155834
1369	31.81506113639018	-1.3354326569209514
1370	31.81483094293079	-1.332135231245774
1370	31.81435297623646	-1.3314837499612728
1371	31.80754485305076	-1.334745722308468
1371	31.80748025006378	-1.334763780931569
1371	31.807208620504504	-1.3348721893594044
1371	31.80707041877039	-1.3349263923860066
1371	31.80692097888472	-1.3349896350056623
1371	31.806845115898266	-1.3350619587247177
1371	31.806580658162105	-1.3352703967314126
1371	31.806466176390465	-1.3354164923775318
1371	31.805717972976478	-1.3356862867795407
1371	31.805141371655314	-1.3359871670485997
1371	31.804351543381028	-1.335887129716925
1371	31.803913612098235	-1.336070712923877
1381	31.813095	-1.3277889
1382	31.813588912541725	-1.3304178090313847
1383	31.81357692900805	-1.3305597419163857
1384	31.811186099591485	-1.3314923761909019
1387	31.8102777	-1.3419795
1387	31.810279628773607	-1.3419755487696154
1388	31.810159929976678	-1.3419662965019523
1389	31.813266591232832	-1.337500668250886
1390	31.813382105671202	-1.3373874676390065
1391	31.814802577605523	-1.335645782410574
1392	31.81481023230741	-1.3354902081218831
1394	31.808737484312793	-1.328622556062488
1397	31.81970033834873	-1.3303729289622468
1399	31.8105099008543	-1.3304820504990849
1401	31.8096497	-1.3294595
1408	31.82135602991005	-1.3315487188539785
1409	31.80986558899606	-1.3267044813267914
1410	31.8100144	-1.3258969
1411	31.810146225070646	-1.3251738419965953
1412	31.8102186	-1.3244989
1412	31.810221691024406	-1.3244991933090053
1413	31.8103381695161	-1.3234748034983963
1415	31.8151978	-1.3325906
1416	31.82002896429342	-1.332559657353293
1420	31.818319659101206	-1.3320245893763598
1423	31.80925069530183	-1.3291997152992652

[END]